Version 4.1
SHEET 1 996 852
WIRE -1360 208 -1424 208
WIRE -896 208 -1280 208
WIRE -832 208 -896 208
WIRE -1424 240 -1424 208
WIRE -896 240 -896 208
WIRE -96 304 -160 304
WIRE 368 304 -16 304
WIRE 432 304 368 304
WIRE -1424 336 -1424 320
WIRE -896 336 -896 304
WIRE -160 336 -160 304
WIRE 368 336 368 304
WIRE -832 368 -832 208
WIRE -864 400 -896 400
WIRE -688 432 -736 432
WIRE -656 432 -688 432
WIRE -592 432 -656 432
WIRE -432 432 -528 432
WIRE -160 432 -160 416
WIRE 368 432 368 400
WIRE -896 464 -896 400
WIRE -896 464 -1056 464
WIRE -864 464 -896 464
WIRE 432 464 432 304
WIRE -656 480 -656 432
WIRE -1056 496 -1056 464
WIRE 400 496 368 496
WIRE 368 512 368 496
WIRE -832 528 -832 496
WIRE -784 528 -784 496
WIRE -432 528 -432 432
WIRE 576 528 528 528
WIRE 608 528 576 528
WIRE 672 528 608 528
WIRE 832 528 736 528
WIRE -80 560 -176 560
WIRE 128 560 0 560
WIRE 176 560 128 560
WIRE 304 560 256 560
WIRE 400 560 304 560
WIRE -656 576 -656 544
WIRE 608 576 608 528
WIRE -1056 592 -1056 576
WIRE -176 592 -176 560
WIRE 304 592 304 560
WIRE -784 624 -784 592
WIRE 432 624 432 592
WIRE 480 624 480 592
WIRE 832 624 832 528
WIRE 608 672 608 640
WIRE -656 688 -656 656
WIRE -432 688 -432 608
WIRE -176 688 -176 672
WIRE 304 720 304 672
WIRE 480 720 480 688
WIRE 608 784 608 752
WIRE 832 784 832 704
FLAG 608 784 0
FLAG 832 784 0
FLAG 432 624 0
FLAG -160 432 0
FLAG 368 512 0
FLAG -176 688 0
FLAG 832 528 out
FLAG 368 432 0
FLAG 480 720 0
FLAG 576 528 amp
FLAG 304 720 0
FLAG 128 560 in
FLAG -656 688 0
FLAG -432 688 0
FLAG -832 528 0
FLAG -1424 336 0
FLAG -1056 592 0
FLAG -432 432 outc
FLAG -896 336 0
FLAG -784 624 0
FLAG -688 432 ampc
FLAG -1056 464 inc
SYMBOL cap 672 544 R270
WINDOW 0 32 32 VTop 2
WINDOW 3 0 32 VBottom 2
SYMATTR InstName Cb1
SYMATTR Value {CB}
SYMBOL cap 592 576 R0
SYMATTR InstName Csh1
SYMATTR Value 47n
SYMBOL res 592 656 R0
SYMATTR InstName Rsh1
SYMATTR Value 10
SYMBOL res 816 608 R0
SYMATTR InstName Rl1
SYMATTR Value {Rl}
SYMBOL voltage -160 320 R0
WINDOW 123 0 0 Left 2
WINDOW 39 0 0 Left 2
SYMATTR InstName Vs1
SYMATTR Value {Vs}
SYMBOL res -96 576 R270
WINDOW 0 32 56 VTop 2
WINDOW 3 0 56 VBottom 2
SYMATTR InstName Rs1
SYMATTR Value 50
SYMBOL voltage -176 576 R0
WINDOW 123 38 112 Left 2
WINDOW 39 0 0 Left 2
WINDOW 3 24 44 Left 2
SYMATTR Value2 AC 1
SYMATTR Value {VsigDC}
SYMATTR InstName Vsig1
SYMBOL LM386 448 464 R0
SYMATTR InstName U1
SYMBOL cap 352 336 R0
SYMATTR InstName Cd1
SYMATTR Value {Cd}
SYMATTR SpiceLine Rser=0.5
SYMBOL res -112 320 R270
WINDOW 0 32 56 VTop 2
WINDOW 3 0 56 VBottom 2
SYMATTR InstName Rp1
SYMATTR Value 0.5
SYMBOL cap 464 624 R0
SYMATTR InstName Cbyp1
SYMATTR Value {Cbyp}
SYMBOL res 160 576 R270
WINDOW 0 32 56 VTop 2
WINDOW 3 0 56 VBottom 2
SYMATTR InstName Rp2
SYMATTR Value {Rpot*(1-vol)}
SYMBOL res 288 576 R0
WINDOW 0 -60 66 Left 2
WINDOW 3 -90 97 Left 2
SYMATTR InstName Rp3
SYMATTR Value {Rpot*vol}
SYMBOL cap -592 448 R270
WINDOW 0 32 32 VTop 2
WINDOW 3 0 32 VBottom 2
SYMATTR InstName Cb2
SYMATTR Value {CB}
SYMBOL cap -672 480 R0
SYMATTR InstName Csh2
SYMATTR Value 47n
SYMBOL res -672 560 R0
SYMATTR InstName Rsh2
SYMATTR Value 10
SYMBOL res -448 512 R0
SYMATTR InstName Rl2
SYMATTR Value {Rl}
SYMBOL voltage -1424 224 R0
WINDOW 123 24 124 Left 2
WINDOW 39 0 0 Left 2
SYMATTR Value2 AC {1-{CM}}
SYMATTR InstName Vs2
SYMATTR Value {Vs}
SYMBOL voltage -1056 480 R0
WINDOW 123 38 112 Left 2
WINDOW 39 0 0 Left 2
WINDOW 3 24 44 Left 2
SYMATTR Value2 AC {CM}
SYMATTR Value {VsigDC}
SYMATTR InstName Vsig2
SYMBOL LM386 -816 368 R0
SYMATTR InstName U2
SYMBOL cap -912 240 R0
SYMATTR InstName Cd2
SYMATTR Value {Cd}
SYMATTR SpiceLine Rser=0.5
SYMBOL res -1376 224 R270
WINDOW 0 32 56 VTop 2
WINDOW 3 0 56 VBottom 2
SYMATTR InstName Rp4
SYMATTR Value 0.5
SYMBOL cap -800 528 R0
SYMATTR InstName Cbyp2
SYMATTR Value {Cbyp}
TEXT -240 216 Left 2 ;Power supply\nRp is the cable resistance
TEXT -240 496 Left 2 ;Audio source
TEXT 160 776 Left 2 !.param vol=.99
TEXT 152 496 Left 2 ;POT model
TEXT 872 616 Left 2 ;Speaker
TEXT 576 272 Left 2 ;Amplifier System\n(PCB contains only\nthese components)
TEXT 160 800 Left 2 !.param Rpot=12.5k
TEXT -224 -64 Left 2 !.ac dec 100 100 20k
TEXT 184 -64 Left 2 !.param CB=220u
TEXT 184 -40 Left 2 !.param Cbyp=10u
TEXT 184 -16 Left 2 !.param Vs=12
TEXT 184 8 Left 2 !.param Rl=8
TEXT -1504 120 Left 2 ;Power supply\nRp is the cable resistance
TEXT -1120 400 Left 2 ;Audio source
TEXT -392 520 Left 2 ;Speaker
TEXT -688 176 Left 2 ;Amplifier System\n(PCB contains only\nthese components)
TEXT -224 -24 Left 2 !.meas AC rr MIN V(out)/V(outc)
TEXT -128 -184 Left 2 ;Simulation of CMRR (CM=1) or PSRR (CM=0)
TEXT -120 -160 Left 2 !.param CM=1
TEXT 184 32 Left 2 !.param Cd=5u
TEXT 184 56 Left 2 !.param VsigDC=0
LINE Normal 144 480 144 480 2
LINE Normal -1120 384 -1120 384 2
RECTANGLE Normal -240 464 32 208 2
RECTANGLE Normal -240 736 32 480 2
RECTANGLE Normal 336 816 144 480 2
RECTANGLE Normal 800 720 992 592 2
RECTANGLE Normal 784 848 96 256 2
RECTANGLE Normal -1504 368 -1232 112 2
RECTANGLE Normal -1120 640 -848 384 2
RECTANGLE Normal -464 624 -272 496 2
RECTANGLE Normal -480 752 -1168 160 2
