Version 4.1
SHEET 1 1516 680
WIRE -288 -32 -352 -32
WIRE 176 -32 -208 -32
WIRE 240 -32 176 -32
WIRE -352 0 -352 -32
WIRE 176 0 176 -32
WIRE -352 96 -352 80
WIRE 176 96 176 64
WIRE 240 128 240 -32
WIRE 208 160 176 160
WIRE 176 176 176 160
WIRE 384 192 336 192
WIRE 416 192 384 192
WIRE 480 192 416 192
WIRE 640 192 544 192
WIRE -272 224 -368 224
WIRE -64 224 -192 224
WIRE -16 224 -64 224
WIRE 112 224 64 224
WIRE 208 224 112 224
WIRE 416 240 416 192
WIRE -368 256 -368 224
WIRE 112 256 112 224
WIRE 240 288 240 256
WIRE 288 288 288 256
WIRE 640 288 640 192
WIRE 416 336 416 304
WIRE -368 352 -368 336
WIRE 112 384 112 336
WIRE 288 384 288 352
WIRE 416 448 416 416
WIRE 640 448 640 368
FLAG 416 448 0
FLAG 640 448 0
FLAG 240 288 0
FLAG -352 96 0
FLAG 176 176 0
FLAG -368 352 0
FLAG 640 192 out
FLAG 176 96 0
FLAG 288 384 0
FLAG 384 192 amp
FLAG 112 384 0
FLAG -64 224 in
FLAG -352 -32 Vs
SYMBOL cap 480 208 R270
WINDOW 0 32 32 VTop 2
WINDOW 3 0 32 VBottom 2
SYMATTR InstName Cb
SYMATTR Value {CB}
SYMBOL cap 400 240 R0
SYMATTR InstName Csh
SYMATTR Value 47n
SYMBOL res 400 320 R0
SYMATTR InstName Rsh
SYMATTR Value 10
SYMBOL res 624 272 R0
SYMATTR InstName Rl
SYMATTR Value {Rl}
SYMBOL voltage -352 -16 R0
WINDOW 123 0 0 Left 2
WINDOW 39 0 0 Left 2
SYMATTR InstName Vs
SYMATTR Value {Vs}
SYMBOL res -288 240 R270
WINDOW 0 32 56 VTop 2
WINDOW 3 0 56 VBottom 2
SYMATTR InstName Rs
SYMATTR Value 50
SYMBOL voltage -368 240 R0
WINDOW 123 38 112 Left 2
WINDOW 39 0 0 Left 2
WINDOW 3 31 85 Left 2
SYMATTR Value2 AC 1
SYMATTR Value SINE({VsigDC} {VsigAC} 1k)
SYMATTR InstName Vsig
SYMBOL LM386 256 128 R0
SYMATTR InstName U1
SYMBOL cap 160 0 R0
SYMATTR InstName Cd
SYMATTR Value 5µ
SYMATTR SpiceLine Rser=0.5
SYMBOL res -304 -16 R270
WINDOW 0 32 56 VTop 2
WINDOW 3 0 56 VBottom 2
SYMATTR InstName Rp
SYMATTR Value 0.5
SYMBOL cap 272 288 R0
SYMATTR InstName Cbyp
SYMATTR Value {Cbyp}
SYMBOL res -32 240 R270
WINDOW 0 32 56 VTop 2
WINDOW 3 0 56 VBottom 2
SYMATTR InstName Rp1
SYMATTR Value {Rpot*(1-vol)}
SYMBOL res 96 240 R0
WINDOW 0 -60 66 Left 2
WINDOW 3 -90 97 Left 2
SYMATTR InstName Rp2
SYMATTR Value {Rpot*vol}
TEXT -432 -120 Left 2 ;Power supply\nRp is the cable resistance
TEXT -432 160 Left 2 ;Audio source
TEXT -32 440 Left 2 !.param vol=.99
TEXT -40 160 Left 2 ;POT model
TEXT 680 280 Left 2 ;Speaker
TEXT 384 -64 Left 2 ;Amplifier System\n(PCB contains only\nthese components)
TEXT -32 464 Left 2 !.param Rpot=2k
TEXT -8 -400 Left 2 !.param CB=100u
TEXT -8 -376 Left 2 !.param Cbyp=5u
TEXT -8 -352 Left 2 !.param Vs=9
TEXT -8 -328 Left 2 !.param Rl=8
TEXT 232 -400 Left 2 ;CB stepped from 10u to 220u, increment=10u
TEXT 232 -328 Left 2 ;Rl stepped with list: 4, 8, 16
TEXT 232 -376 Left 2 ;Cbyp stepped from 1u to 10u, increment=1u
TEXT 232 -352 Left 2 ;Vs stepped from 6 to 12, increment=1
TEXT -8 -304 Left 2 !.param VsigDC=0
TEXT -8 -280 Left 2 !.param VsigAC=0.1
TEXT 232 -304 Left 2 ;VsigDC stepped from -0.2 to 0.2, increment= 0.02
TEXT -416 -440 Left 2 !.tran 0 15m 5m
TEXT 344 -120 Left 2 !.four 1k 5 V(out)
TEXT -416 -264 Left 2 !.meas tran Pout avg V(out)*I(Rl)
TEXT -416 -296 Left 2 !.meas tran Pin avg V(Vs)*I(Rp)
TEXT -408 -328 Left 2 !.meas tran eff param Pout/Pin
TEXT 888 -400 Left 2 ;VsigAC stepped from 140m to 160m, increment=0.5m
TEXT 888 -376 Left 2 ;VsigAC stepped from 140m to 160m, increment=0.5m
TEXT 888 -352 Left 2 ;VsigAC stepped from 50m to 250m, increment=1m
TEXT 888 -328 Left 2 ;VsigAC stepped from 140m to 160m, increment=0.5m
TEXT 888 -304 Left 2 ;VsigAC stepped from 5m to 200m, increment=0.5m
LINE Normal -48 144 -48 144 2
RECTANGLE Normal -432 128 -160 -128 2
RECTANGLE Normal -432 400 -160 144 2
RECTANGLE Normal 144 480 -48 144 2
RECTANGLE Normal 608 384 800 256 2
RECTANGLE Normal 592 512 -96 -80 2
